
---------- Begin Simulation Statistics ----------
simSeconds                                   0.000470                       # Number of seconds simulated (Second)
simTicks                                    470489000                       # Number of ticks simulated (Tick)
finalTick                                   470489000                       # Number of ticks from beginning of simulation (restored from checkpoints and never reset) (Tick)
simFreq                                  1000000000000                       # The number of ticks per simulated second ((Tick/Second))
hostSeconds                                      0.73                       # Real time elapsed on the host (Second)
hostTickRate                                646526539                       # The number of ticks simulated per host second (ticks/s) ((Tick/Second))
hostMemory                                    8561820                       # Number of bytes of host memory used (Byte)
simInsts                                       116355                       # Number of instructions simulated (Count)
simOps                                         224155                       # Number of ops (including micro ops) simulated (Count)
hostInstRate                                   159866                       # Simulator instruction rate (inst/s) ((Count/Second))
hostOpRate                                     307976                       # Simulator op (including micro ops) rate (op/s) ((Count/Second))
system.clk_domain.clock                          1000                       # Clock period in ticks (Tick)
system.clk_domain.voltage_domain.voltage            1                       # Voltage in Volts (Volt)
system.cpu.numCycles                           470490                       # Number of cpu cycles simulated (Cycle)
system.cpu.cpi                               4.043574                       # CPI: cycles per instruction (core level) ((Cycle/Count))
system.cpu.ipc                               0.247306                       # IPC: instructions per cycle (core level) ((Count/Cycle))
system.cpu.numWorkItemsStarted                      0                       # Number of work items this cpu started (Count)
system.cpu.numWorkItemsCompleted                    0                       # Number of work items this cpu completed (Count)
system.cpu.instsAdded                          241517                       # Number of instructions added to the IQ (excludes non-spec) (Count)
system.cpu.nonSpecInstsAdded                       13                       # Number of non-speculative instructions added to the IQ (Count)
system.cpu.instsIssued                         236170                       # Number of instructions issued (Count)
system.cpu.squashedInstsIssued                   1446                       # Number of squashed instructions issued (Count)
system.cpu.squashedInstsExamined                17371                       # Number of squashed instructions iterated over during squash; mainly for profiling (Count)
system.cpu.squashedOperandsExamined             27880                       # Number of squashed operands that are examined and possibly removed from graph (Count)
system.cpu.numIssuedDist::samples              404832                       # Number of insts issued each cycle (Count)
system.cpu.numIssuedDist::mean               0.583378                       # Number of insts issued each cycle (Count)
system.cpu.numIssuedDist::stdev              0.493000                       # Number of insts issued each cycle (Count)
system.cpu.numIssuedDist::underflows                0      0.00%      0.00% # Number of insts issued each cycle (Count)
system.cpu.numIssuedDist::0                    168662     41.66%     41.66% # Number of insts issued each cycle (Count)
system.cpu.numIssuedDist::1                    236170     58.34%    100.00% # Number of insts issued each cycle (Count)
system.cpu.numIssuedDist::overflows                 0      0.00%    100.00% # Number of insts issued each cycle (Count)
system.cpu.numIssuedDist::min_value                 0                       # Number of insts issued each cycle (Count)
system.cpu.numIssuedDist::max_value                 1                       # Number of insts issued each cycle (Count)
system.cpu.numIssuedDist::total                404832                       # Number of insts issued each cycle (Count)
system.cpu.statFuBusy::No_OpClass                   0      0.00%      0.00% # attempts to use FU when none available (Count)
system.cpu.statFuBusy::IntAlu                       0      0.00%      0.00% # attempts to use FU when none available (Count)
system.cpu.statFuBusy::IntMult                      0      0.00%      0.00% # attempts to use FU when none available (Count)
system.cpu.statFuBusy::IntDiv                       2    100.00%    100.00% # attempts to use FU when none available (Count)
system.cpu.statFuBusy::FloatAdd                     0      0.00%    100.00% # attempts to use FU when none available (Count)
system.cpu.statFuBusy::FloatCmp                     0      0.00%    100.00% # attempts to use FU when none available (Count)
system.cpu.statFuBusy::FloatCvt                     0      0.00%    100.00% # attempts to use FU when none available (Count)
system.cpu.statFuBusy::FloatMult                    0      0.00%    100.00% # attempts to use FU when none available (Count)
system.cpu.statFuBusy::FloatMultAcc                 0      0.00%    100.00% # attempts to use FU when none available (Count)
system.cpu.statFuBusy::FloatDiv                     0      0.00%    100.00% # attempts to use FU when none available (Count)
system.cpu.statFuBusy::FloatMisc                    0      0.00%    100.00% # attempts to use FU when none available (Count)
system.cpu.statFuBusy::FloatSqrt                    0      0.00%    100.00% # attempts to use FU when none available (Count)
system.cpu.statFuBusy::SimdAdd                      0      0.00%    100.00% # attempts to use FU when none available (Count)
system.cpu.statFuBusy::SimdAddAcc                   0      0.00%    100.00% # attempts to use FU when none available (Count)
system.cpu.statFuBusy::SimdAlu                      0      0.00%    100.00% # attempts to use FU when none available (Count)
system.cpu.statFuBusy::SimdCmp                      0      0.00%    100.00% # attempts to use FU when none available (Count)
system.cpu.statFuBusy::SimdCvt                      0      0.00%    100.00% # attempts to use FU when none available (Count)
system.cpu.statFuBusy::SimdMisc                     0      0.00%    100.00% # attempts to use FU when none available (Count)
system.cpu.statFuBusy::SimdMult                     0      0.00%    100.00% # attempts to use FU when none available (Count)
system.cpu.statFuBusy::SimdMultAcc                  0      0.00%    100.00% # attempts to use FU when none available (Count)
system.cpu.statFuBusy::SimdMatMultAcc               0      0.00%    100.00% # attempts to use FU when none available (Count)
system.cpu.statFuBusy::SimdShift                    0      0.00%    100.00% # attempts to use FU when none available (Count)
system.cpu.statFuBusy::SimdShiftAcc                 0      0.00%    100.00% # attempts to use FU when none available (Count)
system.cpu.statFuBusy::SimdDiv                      0      0.00%    100.00% # attempts to use FU when none available (Count)
system.cpu.statFuBusy::SimdSqrt                     0      0.00%    100.00% # attempts to use FU when none available (Count)
system.cpu.statFuBusy::SimdFloatAdd                 0      0.00%    100.00% # attempts to use FU when none available (Count)
system.cpu.statFuBusy::SimdFloatAlu                 0      0.00%    100.00% # attempts to use FU when none available (Count)
system.cpu.statFuBusy::SimdFloatCmp                 0      0.00%    100.00% # attempts to use FU when none available (Count)
system.cpu.statFuBusy::SimdFloatCvt                 0      0.00%    100.00% # attempts to use FU when none available (Count)
system.cpu.statFuBusy::SimdFloatDiv                 0      0.00%    100.00% # attempts to use FU when none available (Count)
system.cpu.statFuBusy::SimdFloatMisc                0      0.00%    100.00% # attempts to use FU when none available (Count)
system.cpu.statFuBusy::SimdFloatMult                0      0.00%    100.00% # attempts to use FU when none available (Count)
system.cpu.statFuBusy::SimdFloatMultAcc             0      0.00%    100.00% # attempts to use FU when none available (Count)
system.cpu.statFuBusy::SimdFloatMatMultAcc            0      0.00%    100.00% # attempts to use FU when none available (Count)
system.cpu.statFuBusy::SimdFloatSqrt                0      0.00%    100.00% # attempts to use FU when none available (Count)
system.cpu.statFuBusy::SimdReduceAdd                0      0.00%    100.00% # attempts to use FU when none available (Count)
system.cpu.statFuBusy::SimdReduceAlu                0      0.00%    100.00% # attempts to use FU when none available (Count)
system.cpu.statFuBusy::SimdReduceCmp                0      0.00%    100.00% # attempts to use FU when none available (Count)
system.cpu.statFuBusy::SimdFloatReduceAdd            0      0.00%    100.00% # attempts to use FU when none available (Count)
system.cpu.statFuBusy::SimdFloatReduceCmp            0      0.00%    100.00% # attempts to use FU when none available (Count)
system.cpu.statFuBusy::SimdAes                      0      0.00%    100.00% # attempts to use FU when none available (Count)
system.cpu.statFuBusy::SimdAesMix                   0      0.00%    100.00% # attempts to use FU when none available (Count)
system.cpu.statFuBusy::SimdSha1Hash                 0      0.00%    100.00% # attempts to use FU when none available (Count)
system.cpu.statFuBusy::SimdSha1Hash2                0      0.00%    100.00% # attempts to use FU when none available (Count)
system.cpu.statFuBusy::SimdSha256Hash               0      0.00%    100.00% # attempts to use FU when none available (Count)
system.cpu.statFuBusy::SimdSha256Hash2              0      0.00%    100.00% # attempts to use FU when none available (Count)
system.cpu.statFuBusy::SimdShaSigma2                0      0.00%    100.00% # attempts to use FU when none available (Count)
system.cpu.statFuBusy::SimdShaSigma3                0      0.00%    100.00% # attempts to use FU when none available (Count)
system.cpu.statFuBusy::SimdPredAlu                  0      0.00%    100.00% # attempts to use FU when none available (Count)
system.cpu.statFuBusy::Matrix                       0      0.00%    100.00% # attempts to use FU when none available (Count)
system.cpu.statFuBusy::MatrixMov                    0      0.00%    100.00% # attempts to use FU when none available (Count)
system.cpu.statFuBusy::MatrixOP                     0      0.00%    100.00% # attempts to use FU when none available (Count)
system.cpu.statFuBusy::MemRead                      0      0.00%    100.00% # attempts to use FU when none available (Count)
system.cpu.statFuBusy::MemWrite                     0      0.00%    100.00% # attempts to use FU when none available (Count)
system.cpu.statFuBusy::FloatMemRead                 0      0.00%    100.00% # attempts to use FU when none available (Count)
system.cpu.statFuBusy::FloatMemWrite                0      0.00%    100.00% # attempts to use FU when none available (Count)
system.cpu.statFuBusy::IprAccess                    0      0.00%    100.00% # attempts to use FU when none available (Count)
system.cpu.statFuBusy::InstPrefetch                 0      0.00%    100.00% # attempts to use FU when none available (Count)
system.cpu.statFuBusy::SimdUnitStrideLoad            0      0.00%    100.00% # attempts to use FU when none available (Count)
system.cpu.statFuBusy::SimdUnitStrideStore            0      0.00%    100.00% # attempts to use FU when none available (Count)
system.cpu.statFuBusy::SimdUnitStrideMaskLoad            0      0.00%    100.00% # attempts to use FU when none available (Count)
system.cpu.statFuBusy::SimdUnitStrideMaskStore            0      0.00%    100.00% # attempts to use FU when none available (Count)
system.cpu.statFuBusy::SimdStridedLoad              0      0.00%    100.00% # attempts to use FU when none available (Count)
system.cpu.statFuBusy::SimdStridedStore             0      0.00%    100.00% # attempts to use FU when none available (Count)
system.cpu.statFuBusy::SimdIndexedLoad              0      0.00%    100.00% # attempts to use FU when none available (Count)
system.cpu.statFuBusy::SimdIndexedStore             0      0.00%    100.00% # attempts to use FU when none available (Count)
system.cpu.statFuBusy::SimdWholeRegisterLoad            0      0.00%    100.00% # attempts to use FU when none available (Count)
system.cpu.statFuBusy::SimdWholeRegisterStore            0      0.00%    100.00% # attempts to use FU when none available (Count)
system.cpu.statFuBusy::SimdUnitStrideFaultOnlyFirstLoad            0      0.00%    100.00% # attempts to use FU when none available (Count)
system.cpu.statFuBusy::SimdUnitStrideSegmentedLoad            0      0.00%    100.00% # attempts to use FU when none available (Count)
system.cpu.statFuBusy::SimdUnitStrideSegmentedStore            0      0.00%    100.00% # attempts to use FU when none available (Count)
system.cpu.statFuBusy::SimdUnitStrideSegmentedFaultOnlyFirstLoad            0      0.00%    100.00% # attempts to use FU when none available (Count)
system.cpu.statFuBusy::SimdStrideSegmentedLoad            0      0.00%    100.00% # attempts to use FU when none available (Count)
system.cpu.statFuBusy::SimdStrideSegmentedStore            0      0.00%    100.00% # attempts to use FU when none available (Count)
system.cpu.statFuBusy::SimdExt                      0      0.00%    100.00% # attempts to use FU when none available (Count)
system.cpu.statFuBusy::SimdFloatExt                 0      0.00%    100.00% # attempts to use FU when none available (Count)
system.cpu.statFuBusy::SimdConfig                   0      0.00%    100.00% # attempts to use FU when none available (Count)
system.cpu.statIssuedInstType_0::No_OpClass         2014      0.85%      0.85% # Number of instructions issued per FU type, per thread (Count)
system.cpu.statIssuedInstType_0::IntAlu        178027     75.38%     76.23% # Number of instructions issued per FU type, per thread (Count)
system.cpu.statIssuedInstType_0::IntMult          835      0.35%     76.59% # Number of instructions issued per FU type, per thread (Count)
system.cpu.statIssuedInstType_0::IntDiv          1779      0.75%     77.34% # Number of instructions issued per FU type, per thread (Count)
system.cpu.statIssuedInstType_0::FloatAdd          538      0.23%     77.57% # Number of instructions issued per FU type, per thread (Count)
system.cpu.statIssuedInstType_0::FloatCmp            0      0.00%     77.57% # Number of instructions issued per FU type, per thread (Count)
system.cpu.statIssuedInstType_0::FloatCvt            0      0.00%     77.57% # Number of instructions issued per FU type, per thread (Count)
system.cpu.statIssuedInstType_0::FloatMult            0      0.00%     77.57% # Number of instructions issued per FU type, per thread (Count)
system.cpu.statIssuedInstType_0::FloatMultAcc            0      0.00%     77.57% # Number of instructions issued per FU type, per thread (Count)
system.cpu.statIssuedInstType_0::FloatDiv            0      0.00%     77.57% # Number of instructions issued per FU type, per thread (Count)
system.cpu.statIssuedInstType_0::FloatMisc            0      0.00%     77.57% # Number of instructions issued per FU type, per thread (Count)
system.cpu.statIssuedInstType_0::FloatSqrt            0      0.00%     77.57% # Number of instructions issued per FU type, per thread (Count)
system.cpu.statIssuedInstType_0::SimdAdd          538      0.23%     77.80% # Number of instructions issued per FU type, per thread (Count)
system.cpu.statIssuedInstType_0::SimdAddAcc            0      0.00%     77.80% # Number of instructions issued per FU type, per thread (Count)
system.cpu.statIssuedInstType_0::SimdAlu         1210      0.51%     78.31% # Number of instructions issued per FU type, per thread (Count)
system.cpu.statIssuedInstType_0::SimdCmp            4      0.00%     78.31% # Number of instructions issued per FU type, per thread (Count)
system.cpu.statIssuedInstType_0::SimdCvt         1216      0.51%     78.82% # Number of instructions issued per FU type, per thread (Count)
system.cpu.statIssuedInstType_0::SimdMisc         1163      0.49%     79.32% # Number of instructions issued per FU type, per thread (Count)
system.cpu.statIssuedInstType_0::SimdMult            0      0.00%     79.32% # Number of instructions issued per FU type, per thread (Count)
system.cpu.statIssuedInstType_0::SimdMultAcc            0      0.00%     79.32% # Number of instructions issued per FU type, per thread (Count)
system.cpu.statIssuedInstType_0::SimdMatMultAcc            0      0.00%     79.32% # Number of instructions issued per FU type, per thread (Count)
system.cpu.statIssuedInstType_0::SimdShift          360      0.15%     79.47% # Number of instructions issued per FU type, per thread (Count)
system.cpu.statIssuedInstType_0::SimdShiftAcc            0      0.00%     79.47% # Number of instructions issued per FU type, per thread (Count)
system.cpu.statIssuedInstType_0::SimdDiv            0      0.00%     79.47% # Number of instructions issued per FU type, per thread (Count)
system.cpu.statIssuedInstType_0::SimdSqrt            0      0.00%     79.47% # Number of instructions issued per FU type, per thread (Count)
system.cpu.statIssuedInstType_0::SimdFloatAdd            0      0.00%     79.47% # Number of instructions issued per FU type, per thread (Count)
system.cpu.statIssuedInstType_0::SimdFloatAlu            0      0.00%     79.47% # Number of instructions issued per FU type, per thread (Count)
system.cpu.statIssuedInstType_0::SimdFloatCmp            0      0.00%     79.47% # Number of instructions issued per FU type, per thread (Count)
system.cpu.statIssuedInstType_0::SimdFloatCvt            0      0.00%     79.47% # Number of instructions issued per FU type, per thread (Count)
system.cpu.statIssuedInstType_0::SimdFloatDiv            0      0.00%     79.47% # Number of instructions issued per FU type, per thread (Count)
system.cpu.statIssuedInstType_0::SimdFloatMisc            0      0.00%     79.47% # Number of instructions issued per FU type, per thread (Count)
system.cpu.statIssuedInstType_0::SimdFloatMult            0      0.00%     79.47% # Number of instructions issued per FU type, per thread (Count)
system.cpu.statIssuedInstType_0::SimdFloatMultAcc            0      0.00%     79.47% # Number of instructions issued per FU type, per thread (Count)
system.cpu.statIssuedInstType_0::SimdFloatMatMultAcc            0      0.00%     79.47% # Number of instructions issued per FU type, per thread (Count)
system.cpu.statIssuedInstType_0::SimdFloatSqrt            0      0.00%     79.47% # Number of instructions issued per FU type, per thread (Count)
system.cpu.statIssuedInstType_0::SimdReduceAdd            0      0.00%     79.47% # Number of instructions issued per FU type, per thread (Count)
system.cpu.statIssuedInstType_0::SimdReduceAlu            0      0.00%     79.47% # Number of instructions issued per FU type, per thread (Count)
system.cpu.statIssuedInstType_0::SimdReduceCmp            0      0.00%     79.47% # Number of instructions issued per FU type, per thread (Count)
system.cpu.statIssuedInstType_0::SimdFloatReduceAdd            0      0.00%     79.47% # Number of instructions issued per FU type, per thread (Count)
system.cpu.statIssuedInstType_0::SimdFloatReduceCmp            0      0.00%     79.47% # Number of instructions issued per FU type, per thread (Count)
system.cpu.statIssuedInstType_0::SimdAes            0      0.00%     79.47% # Number of instructions issued per FU type, per thread (Count)
system.cpu.statIssuedInstType_0::SimdAesMix            0      0.00%     79.47% # Number of instructions issued per FU type, per thread (Count)
system.cpu.statIssuedInstType_0::SimdSha1Hash            0      0.00%     79.47% # Number of instructions issued per FU type, per thread (Count)
system.cpu.statIssuedInstType_0::SimdSha1Hash2            0      0.00%     79.47% # Number of instructions issued per FU type, per thread (Count)
system.cpu.statIssuedInstType_0::SimdSha256Hash            0      0.00%     79.47% # Number of instructions issued per FU type, per thread (Count)
system.cpu.statIssuedInstType_0::SimdSha256Hash2            0      0.00%     79.47% # Number of instructions issued per FU type, per thread (Count)
system.cpu.statIssuedInstType_0::SimdShaSigma2            0      0.00%     79.47% # Number of instructions issued per FU type, per thread (Count)
system.cpu.statIssuedInstType_0::SimdShaSigma3            0      0.00%     79.47% # Number of instructions issued per FU type, per thread (Count)
system.cpu.statIssuedInstType_0::SimdPredAlu            0      0.00%     79.47% # Number of instructions issued per FU type, per thread (Count)
system.cpu.statIssuedInstType_0::Matrix             0      0.00%     79.47% # Number of instructions issued per FU type, per thread (Count)
system.cpu.statIssuedInstType_0::MatrixMov            0      0.00%     79.47% # Number of instructions issued per FU type, per thread (Count)
system.cpu.statIssuedInstType_0::MatrixOP            0      0.00%     79.47% # Number of instructions issued per FU type, per thread (Count)
system.cpu.statIssuedInstType_0::MemRead        30825     13.05%     92.52% # Number of instructions issued per FU type, per thread (Count)
system.cpu.statIssuedInstType_0::MemWrite        14947      6.33%     98.85% # Number of instructions issued per FU type, per thread (Count)
system.cpu.statIssuedInstType_0::FloatMemRead         1473      0.62%     99.47% # Number of instructions issued per FU type, per thread (Count)
system.cpu.statIssuedInstType_0::FloatMemWrite         1241      0.53%    100.00% # Number of instructions issued per FU type, per thread (Count)
system.cpu.statIssuedInstType_0::IprAccess            0      0.00%    100.00% # Number of instructions issued per FU type, per thread (Count)
system.cpu.statIssuedInstType_0::InstPrefetch            0      0.00%    100.00% # Number of instructions issued per FU type, per thread (Count)
system.cpu.statIssuedInstType_0::SimdUnitStrideLoad            0      0.00%    100.00% # Number of instructions issued per FU type, per thread (Count)
system.cpu.statIssuedInstType_0::SimdUnitStrideStore            0      0.00%    100.00% # Number of instructions issued per FU type, per thread (Count)
system.cpu.statIssuedInstType_0::SimdUnitStrideMaskLoad            0      0.00%    100.00% # Number of instructions issued per FU type, per thread (Count)
system.cpu.statIssuedInstType_0::SimdUnitStrideMaskStore            0      0.00%    100.00% # Number of instructions issued per FU type, per thread (Count)
system.cpu.statIssuedInstType_0::SimdStridedLoad            0      0.00%    100.00% # Number of instructions issued per FU type, per thread (Count)
system.cpu.statIssuedInstType_0::SimdStridedStore            0      0.00%    100.00% # Number of instructions issued per FU type, per thread (Count)
system.cpu.statIssuedInstType_0::SimdIndexedLoad            0      0.00%    100.00% # Number of instructions issued per FU type, per thread (Count)
system.cpu.statIssuedInstType_0::SimdIndexedStore            0      0.00%    100.00% # Number of instructions issued per FU type, per thread (Count)
system.cpu.statIssuedInstType_0::SimdWholeRegisterLoad            0      0.00%    100.00% # Number of instructions issued per FU type, per thread (Count)
system.cpu.statIssuedInstType_0::SimdWholeRegisterStore            0      0.00%    100.00% # Number of instructions issued per FU type, per thread (Count)
system.cpu.statIssuedInstType_0::SimdUnitStrideFaultOnlyFirstLoad            0      0.00%    100.00% # Number of instructions issued per FU type, per thread (Count)
system.cpu.statIssuedInstType_0::SimdUnitStrideSegmentedLoad            0      0.00%    100.00% # Number of instructions issued per FU type, per thread (Count)
system.cpu.statIssuedInstType_0::SimdUnitStrideSegmentedStore            0      0.00%    100.00% # Number of instructions issued per FU type, per thread (Count)
system.cpu.statIssuedInstType_0::SimdUnitStrideSegmentedFaultOnlyFirstLoad            0      0.00%    100.00% # Number of instructions issued per FU type, per thread (Count)
system.cpu.statIssuedInstType_0::SimdStrideSegmentedLoad            0      0.00%    100.00% # Number of instructions issued per FU type, per thread (Count)
system.cpu.statIssuedInstType_0::SimdStrideSegmentedStore            0      0.00%    100.00% # Number of instructions issued per FU type, per thread (Count)
system.cpu.statIssuedInstType_0::SimdExt            0      0.00%    100.00% # Number of instructions issued per FU type, per thread (Count)
system.cpu.statIssuedInstType_0::SimdFloatExt            0      0.00%    100.00% # Number of instructions issued per FU type, per thread (Count)
system.cpu.statIssuedInstType_0::SimdConfig            0      0.00%    100.00% # Number of instructions issued per FU type, per thread (Count)
system.cpu.statIssuedInstType_0::total         236170                       # Number of instructions issued per FU type, per thread (Count)
system.cpu.issueRate                         0.501966                       # Inst issue rate ((Count/Cycle))
system.cpu.fuBusy                                   2                       # FU busy when requested (Count)
system.cpu.fuBusyRate                        0.000008                       # FU busy rate (busy events/executed inst) ((Count/Count))
system.cpu.intInstQueueReads                   862171                       # Number of integer instruction queue reads (Count)
system.cpu.intInstQueueWrites                  249638                       # Number of integer instruction queue writes (Count)
system.cpu.intInstQueueWakeupAccesses          225301                       # Number of integer instruction queue wakeup accesses (Count)
system.cpu.fpInstQueueReads                     16448                       # Number of floating instruction queue reads (Count)
system.cpu.fpInstQueueWrites                     9273                       # Number of floating instruction queue writes (Count)
system.cpu.fpInstQueueWakeupAccesses             7828                       # Number of floating instruction queue wakeup accesses (Count)
system.cpu.vecInstQueueReads                        0                       # Number of vector instruction queue reads (Count)
system.cpu.vecInstQueueWrites                       0                       # Number of vector instruction queue writes (Count)
system.cpu.vecInstQueueWakeupAccesses               0                       # Number of vector instruction queue wakeup accesses (Count)
system.cpu.intAluAccesses                      226019                       # Number of integer alu accesses (Count)
system.cpu.fpAluAccesses                         8139                       # Number of floating point alu accesses (Count)
system.cpu.vecAluAccesses                           0                       # Number of vector alu accesses (Count)
system.cpu.numRecvResp                          46887                       # Number of received responses (Count)
system.cpu.numRecvRespBytes                    304267                       # Number of received response bytes (Byte)
system.cpu.recvRespAvgBW                         0.65                       # Average bandwidth of received responses ((Byte/Cycle))
system.cpu.recvRespAvgSize                       6.49                       # Average packet size per received response ((Byte/Count))
system.cpu.recvRespAvgRate                       0.10                       # Average rate of received responses per cycle ((Count/Cycle))
system.cpu.recvRespAvgRetryRate                  0.00                       # Average retry rate per received response ((Count/Count))
system.cpu.numSendRetryResp                         0                       # Number of retry responses sent (Count)
system.cpu.numSquashedInsts                      1918                       # Number of squashed instructions skipped in execute (Count)
system.cpu.numSwp                                   0                       # Number of swp insts executed (Count)
system.cpu.timesIdled                            1876                       # Number of times that the entire CPU went into an idle state and unscheduled itself (Count)
system.cpu.idleCycles                           65658                       # Total number of cycles that the CPU has spent unscheduled due to idling (Cycle)
system.cpu.MemDepUnit__0.insertedLoads          32863                       # Number of loads inserted to the mem dependence unit. (Count)
system.cpu.MemDepUnit__0.insertedStores         16457                       # Number of stores inserted to the mem dependence unit. (Count)
system.cpu.MemDepUnit__0.conflictingLoads          315                       # Number of conflicting loads. (Count)
system.cpu.MemDepUnit__0.conflictingStores          256                       # Number of conflicting stores. (Count)
system.cpu.MemDepUnit__1.insertedLoads              0                       # Number of loads inserted to the mem dependence unit. (Count)
system.cpu.MemDepUnit__1.insertedStores             0                       # Number of stores inserted to the mem dependence unit. (Count)
system.cpu.MemDepUnit__1.conflictingLoads            0                       # Number of conflicting loads. (Count)
system.cpu.MemDepUnit__1.conflictingStores            0                       # Number of conflicting stores. (Count)
system.cpu.MemDepUnit__2.insertedLoads              0                       # Number of loads inserted to the mem dependence unit. (Count)
system.cpu.MemDepUnit__2.insertedStores             0                       # Number of stores inserted to the mem dependence unit. (Count)
system.cpu.MemDepUnit__2.conflictingLoads            0                       # Number of conflicting loads. (Count)
system.cpu.MemDepUnit__2.conflictingStores            0                       # Number of conflicting stores. (Count)
system.cpu.MemDepUnit__3.insertedLoads              0                       # Number of loads inserted to the mem dependence unit. (Count)
system.cpu.MemDepUnit__3.insertedStores             0                       # Number of stores inserted to the mem dependence unit. (Count)
system.cpu.MemDepUnit__3.conflictingLoads            0                       # Number of conflicting loads. (Count)
system.cpu.MemDepUnit__3.conflictingStores            0                       # Number of conflicting stores. (Count)
system.cpu.branchPred.lookups_0::NoBranch          187      0.72%      0.72% # Number of BP lookups (Count)
system.cpu.branchPred.lookups_0::Return          1155      4.42%      5.13% # Number of BP lookups (Count)
system.cpu.branchPred.lookups_0::CallDirect         1109      4.24%      9.38% # Number of BP lookups (Count)
system.cpu.branchPred.lookups_0::CallIndirect           95      0.36%      9.74% # Number of BP lookups (Count)
system.cpu.branchPred.lookups_0::DirectCond        22128     84.66%     94.40% # Number of BP lookups (Count)
system.cpu.branchPred.lookups_0::DirectUncond         1099      4.20%     98.60% # Number of BP lookups (Count)
system.cpu.branchPred.lookups_0::IndirectCond            0      0.00%     98.60% # Number of BP lookups (Count)
system.cpu.branchPred.lookups_0::IndirectUncond          365      1.40%    100.00% # Number of BP lookups (Count)
system.cpu.branchPred.lookups_0::total          26138                       # Number of BP lookups (Count)
system.cpu.branchPred.squashes_0::NoBranch          140      5.67%      5.67% # Number of branches that got squashed (completely removed) as an earlier branch was mispredicted. (Count)
system.cpu.branchPred.squashes_0::Return           81      3.28%      8.95% # Number of branches that got squashed (completely removed) as an earlier branch was mispredicted. (Count)
system.cpu.branchPred.squashes_0::CallDirect          121      4.90%     13.85% # Number of branches that got squashed (completely removed) as an earlier branch was mispredicted. (Count)
system.cpu.branchPred.squashes_0::CallIndirect            6      0.24%     14.09% # Number of branches that got squashed (completely removed) as an earlier branch was mispredicted. (Count)
system.cpu.branchPred.squashes_0::DirectCond         1855     75.10%     89.19% # Number of branches that got squashed (completely removed) as an earlier branch was mispredicted. (Count)
system.cpu.branchPred.squashes_0::DirectUncond          222      8.99%     98.18% # Number of branches that got squashed (completely removed) as an earlier branch was mispredicted. (Count)
system.cpu.branchPred.squashes_0::IndirectCond            0      0.00%     98.18% # Number of branches that got squashed (completely removed) as an earlier branch was mispredicted. (Count)
system.cpu.branchPred.squashes_0::IndirectUncond           45      1.82%    100.00% # Number of branches that got squashed (completely removed) as an earlier branch was mispredicted. (Count)
system.cpu.branchPred.squashes_0::total          2470                       # Number of branches that got squashed (completely removed) as an earlier branch was mispredicted. (Count)
system.cpu.branchPred.corrected_0::NoBranch           47      1.53%      1.53% # Number of branches that got corrected but not yet commited. Branches get corrected by decode or after execute. Also a branch misprediction can be detected out-of-order. Therefore, a corrected branch might not end up beeing committed in case an even earlier branch was mispredicted (Count)
system.cpu.branchPred.corrected_0::Return            0      0.00%      1.53% # Number of branches that got corrected but not yet commited. Branches get corrected by decode or after execute. Also a branch misprediction can be detected out-of-order. Therefore, a corrected branch might not end up beeing committed in case an even earlier branch was mispredicted (Count)
system.cpu.branchPred.corrected_0::CallDirect          286      9.30%     10.83% # Number of branches that got corrected but not yet commited. Branches get corrected by decode or after execute. Also a branch misprediction can be detected out-of-order. Therefore, a corrected branch might not end up beeing committed in case an even earlier branch was mispredicted (Count)
system.cpu.branchPred.corrected_0::CallIndirect           89      2.90%     13.73% # Number of branches that got corrected but not yet commited. Branches get corrected by decode or after execute. Also a branch misprediction can be detected out-of-order. Therefore, a corrected branch might not end up beeing committed in case an even earlier branch was mispredicted (Count)
system.cpu.branchPred.corrected_0::DirectCond         2254     73.32%     87.05% # Number of branches that got corrected but not yet commited. Branches get corrected by decode or after execute. Also a branch misprediction can be detected out-of-order. Therefore, a corrected branch might not end up beeing committed in case an even earlier branch was mispredicted (Count)
system.cpu.branchPred.corrected_0::DirectUncond          212      6.90%     93.95% # Number of branches that got corrected but not yet commited. Branches get corrected by decode or after execute. Also a branch misprediction can be detected out-of-order. Therefore, a corrected branch might not end up beeing committed in case an even earlier branch was mispredicted (Count)
system.cpu.branchPred.corrected_0::IndirectCond            0      0.00%     93.95% # Number of branches that got corrected but not yet commited. Branches get corrected by decode or after execute. Also a branch misprediction can be detected out-of-order. Therefore, a corrected branch might not end up beeing committed in case an even earlier branch was mispredicted (Count)
system.cpu.branchPred.corrected_0::IndirectUncond          186      6.05%    100.00% # Number of branches that got corrected but not yet commited. Branches get corrected by decode or after execute. Also a branch misprediction can be detected out-of-order. Therefore, a corrected branch might not end up beeing committed in case an even earlier branch was mispredicted (Count)
system.cpu.branchPred.corrected_0::total         3074                       # Number of branches that got corrected but not yet commited. Branches get corrected by decode or after execute. Also a branch misprediction can be detected out-of-order. Therefore, a corrected branch might not end up beeing committed in case an even earlier branch was mispredicted (Count)
system.cpu.branchPred.earlyResteers_0::NoBranch            0                       # Number of branches that got redirected after decode. (Count)
system.cpu.branchPred.earlyResteers_0::Return            0                       # Number of branches that got redirected after decode. (Count)
system.cpu.branchPred.earlyResteers_0::CallDirect            0                       # Number of branches that got redirected after decode. (Count)
system.cpu.branchPred.earlyResteers_0::CallIndirect            0                       # Number of branches that got redirected after decode. (Count)
system.cpu.branchPred.earlyResteers_0::DirectCond            0                       # Number of branches that got redirected after decode. (Count)
system.cpu.branchPred.earlyResteers_0::DirectUncond            0                       # Number of branches that got redirected after decode. (Count)
system.cpu.branchPred.earlyResteers_0::IndirectCond            0                       # Number of branches that got redirected after decode. (Count)
system.cpu.branchPred.earlyResteers_0::IndirectUncond            0                       # Number of branches that got redirected after decode. (Count)
system.cpu.branchPred.earlyResteers_0::total            0                       # Number of branches that got redirected after decode. (Count)
system.cpu.branchPred.committed_0::NoBranch           47      0.20%      0.20% # Number of branches finally committed  (Count)
system.cpu.branchPred.committed_0::Return         1073      4.53%      4.73% # Number of branches finally committed  (Count)
system.cpu.branchPred.committed_0::CallDirect          988      4.17%      8.91% # Number of branches finally committed  (Count)
system.cpu.branchPred.committed_0::CallIndirect           89      0.38%      9.28% # Number of branches finally committed  (Count)
system.cpu.branchPred.committed_0::DirectCond        20273     85.66%     94.94% # Number of branches finally committed  (Count)
system.cpu.branchPred.committed_0::DirectUncond          877      3.71%     98.65% # Number of branches finally committed  (Count)
system.cpu.branchPred.committed_0::IndirectCond            0      0.00%     98.65% # Number of branches finally committed  (Count)
system.cpu.branchPred.committed_0::IndirectUncond          320      1.35%    100.00% # Number of branches finally committed  (Count)
system.cpu.branchPred.committed_0::total        23667                       # Number of branches finally committed  (Count)
system.cpu.branchPred.mispredicted_0::NoBranch           47      1.59%      1.59% # Number of committed branches that were mispredicted. (Count)
system.cpu.branchPred.mispredicted_0::Return            0      0.00%      1.59% # Number of committed branches that were mispredicted. (Count)
system.cpu.branchPred.mispredicted_0::CallDirect          264      8.96%     10.55% # Number of committed branches that were mispredicted. (Count)
system.cpu.branchPred.mispredicted_0::CallIndirect           89      3.02%     13.57% # Number of committed branches that were mispredicted. (Count)
system.cpu.branchPred.mispredicted_0::DirectCond         2208     74.92%     88.50% # Number of committed branches that were mispredicted. (Count)
system.cpu.branchPred.mispredicted_0::DirectUncond          155      5.26%     93.76% # Number of committed branches that were mispredicted. (Count)
system.cpu.branchPred.mispredicted_0::IndirectCond            0      0.00%     93.76% # Number of committed branches that were mispredicted. (Count)
system.cpu.branchPred.mispredicted_0::IndirectUncond          184      6.24%    100.00% # Number of committed branches that were mispredicted. (Count)
system.cpu.branchPred.mispredicted_0::total         2947                       # Number of committed branches that were mispredicted. (Count)
system.cpu.branchPred.mispredictDueToPredictor_0::NoBranch           47      2.96%      2.96% # Number of committed branches that were mispredicted by the predictor. (Count)
system.cpu.branchPred.mispredictDueToPredictor_0::Return            0      0.00%      2.96% # Number of committed branches that were mispredicted by the predictor. (Count)
system.cpu.branchPred.mispredictDueToPredictor_0::CallDirect            0      0.00%      2.96% # Number of committed branches that were mispredicted by the predictor. (Count)
system.cpu.branchPred.mispredictDueToPredictor_0::CallIndirect            0      0.00%      2.96% # Number of committed branches that were mispredicted by the predictor. (Count)
system.cpu.branchPred.mispredictDueToPredictor_0::DirectCond         1542     97.04%    100.00% # Number of committed branches that were mispredicted by the predictor. (Count)
system.cpu.branchPred.mispredictDueToPredictor_0::DirectUncond            0      0.00%    100.00% # Number of committed branches that were mispredicted by the predictor. (Count)
system.cpu.branchPred.mispredictDueToPredictor_0::IndirectCond            0      0.00%    100.00% # Number of committed branches that were mispredicted by the predictor. (Count)
system.cpu.branchPred.mispredictDueToPredictor_0::IndirectUncond            0      0.00%    100.00% # Number of committed branches that were mispredicted by the predictor. (Count)
system.cpu.branchPred.mispredictDueToPredictor_0::total         1589                       # Number of committed branches that were mispredicted by the predictor. (Count)
system.cpu.branchPred.mispredictDueToBTBMiss_0::NoBranch            0      0.00%      0.00% # Number of committed branches that were mispredicted because of a BTB miss. (Count)
system.cpu.branchPred.mispredictDueToBTBMiss_0::Return            0      0.00%      0.00% # Number of committed branches that were mispredicted because of a BTB miss. (Count)
system.cpu.branchPred.mispredictDueToBTBMiss_0::CallDirect          264     19.44%     19.44% # Number of committed branches that were mispredicted because of a BTB miss. (Count)
system.cpu.branchPred.mispredictDueToBTBMiss_0::CallIndirect           89      6.55%     25.99% # Number of committed branches that were mispredicted because of a BTB miss. (Count)
system.cpu.branchPred.mispredictDueToBTBMiss_0::DirectCond          666     49.04%     75.04% # Number of committed branches that were mispredicted because of a BTB miss. (Count)
system.cpu.branchPred.mispredictDueToBTBMiss_0::DirectUncond          155     11.41%     86.45% # Number of committed branches that were mispredicted because of a BTB miss. (Count)
system.cpu.branchPred.mispredictDueToBTBMiss_0::IndirectCond            0      0.00%     86.45% # Number of committed branches that were mispredicted because of a BTB miss. (Count)
system.cpu.branchPred.mispredictDueToBTBMiss_0::IndirectUncond          184     13.55%    100.00% # Number of committed branches that were mispredicted because of a BTB miss. (Count)
system.cpu.branchPred.mispredictDueToBTBMiss_0::total         1358                       # Number of committed branches that were mispredicted because of a BTB miss. (Count)
system.cpu.branchPred.targetProvider_0::NoTarget        14958     57.23%     57.23% # The component providing the target for taken branches (Count)
system.cpu.branchPred.targetProvider_0::BTB         9874     37.78%     95.00% # The component providing the target for taken branches (Count)
system.cpu.branchPred.targetProvider_0::RAS         1155      4.42%     99.42% # The component providing the target for taken branches (Count)
system.cpu.branchPred.targetProvider_0::Indirect          151      0.58%    100.00% # The component providing the target for taken branches (Count)
system.cpu.branchPred.targetProvider_0::total        26138                       # The component providing the target for taken branches (Count)
system.cpu.branchPred.targetWrong_0::NoBranch         2336     82.43%     82.43% # Number of branches where the target was incorrect or not available at prediction time. (Count)
system.cpu.branchPred.targetWrong_0::Return          480     16.94%     99.36% # Number of branches where the target was incorrect or not available at prediction time. (Count)
system.cpu.branchPred.targetWrong_0::CallDirect            0      0.00%     99.36% # Number of branches where the target was incorrect or not available at prediction time. (Count)
system.cpu.branchPred.targetWrong_0::CallIndirect           18      0.64%    100.00% # Number of branches where the target was incorrect or not available at prediction time. (Count)
system.cpu.branchPred.targetWrong_0::DirectCond            0      0.00%    100.00% # Number of branches where the target was incorrect or not available at prediction time. (Count)
system.cpu.branchPred.targetWrong_0::DirectUncond            0      0.00%    100.00% # Number of branches where the target was incorrect or not available at prediction time. (Count)
system.cpu.branchPred.targetWrong_0::IndirectCond            0      0.00%    100.00% # Number of branches where the target was incorrect or not available at prediction time. (Count)
system.cpu.branchPred.targetWrong_0::IndirectUncond            0      0.00%    100.00% # Number of branches where the target was incorrect or not available at prediction time. (Count)
system.cpu.branchPred.targetWrong_0::total         2834                       # Number of branches where the target was incorrect or not available at prediction time. (Count)
system.cpu.branchPred.condPredicted             22315                       # Number of conditional branches predicted (Count)
system.cpu.branchPred.condPredictedTaken         8849                       # Number of conditional branches predicted as taken (Count)
system.cpu.branchPred.condIncorrect              3074                       # Number of conditional branches incorrect (Count)
system.cpu.branchPred.predTakenBTBMiss            698                       # Number of branches predicted taken but missed in BTB (Count)
system.cpu.branchPred.BTBLookups                26138                       # Number of BTB lookups (Count)
system.cpu.branchPred.BTBUpdates                 2226                       # Number of BTB updates (Count)
system.cpu.branchPred.BTBHits                   15415                       # Number of BTB hits (Count)
system.cpu.branchPred.BTBHitRatio            0.589754                       # BTB Hit Ratio (Ratio)
system.cpu.branchPred.BTBMispredicted            1190                       # Number BTB mispredictions. No target found or target wrong (Count)
system.cpu.branchPred.indirectLookups             460                       # Number of indirect predictor lookups. (Count)
system.cpu.branchPred.indirectHits                151                       # Number of indirect target hits. (Count)
system.cpu.branchPred.indirectMisses              309                       # Number of indirect misses. (Count)
system.cpu.branchPred.indirectMispredicted            0                       # Number of mispredicted indirect branches. (Count)
system.cpu.branchPred.btb.lookups::NoBranch          187      0.72%      0.72% # Number of BTB lookups (Count)
system.cpu.branchPred.btb.lookups::Return         1155      4.42%      5.13% # Number of BTB lookups (Count)
system.cpu.branchPred.btb.lookups::CallDirect         1109      4.24%      9.38% # Number of BTB lookups (Count)
system.cpu.branchPred.btb.lookups::CallIndirect           95      0.36%      9.74% # Number of BTB lookups (Count)
system.cpu.branchPred.btb.lookups::DirectCond        22128     84.66%     94.40% # Number of BTB lookups (Count)
system.cpu.branchPred.btb.lookups::DirectUncond         1099      4.20%     98.60% # Number of BTB lookups (Count)
system.cpu.branchPred.btb.lookups::IndirectCond            0      0.00%     98.60% # Number of BTB lookups (Count)
system.cpu.branchPred.btb.lookups::IndirectUncond          365      1.40%    100.00% # Number of BTB lookups (Count)
system.cpu.branchPred.btb.lookups::total        26138                       # Number of BTB lookups (Count)
system.cpu.branchPred.btb.misses::NoBranch           55      0.51%      0.51% # Number of BTB misses (Count)
system.cpu.branchPred.btb.misses::Return         1155     10.77%     11.28% # Number of BTB misses (Count)
system.cpu.branchPred.btb.misses::CallDirect          310      2.89%     14.18% # Number of BTB misses (Count)
system.cpu.branchPred.btb.misses::CallIndirect           95      0.89%     15.06% # Number of BTB misses (Count)
system.cpu.branchPred.btb.misses::DirectCond         8513     79.39%     94.45% # Number of BTB misses (Count)
system.cpu.branchPred.btb.misses::DirectUncond          230      2.14%     96.60% # Number of BTB misses (Count)
system.cpu.branchPred.btb.misses::IndirectCond            0      0.00%     96.60% # Number of BTB misses (Count)
system.cpu.branchPred.btb.misses::IndirectUncond          365      3.40%    100.00% # Number of BTB misses (Count)
system.cpu.branchPred.btb.misses::total         10723                       # Number of BTB misses (Count)
system.cpu.branchPred.btb.updates::NoBranch            0      0.00%      0.00% # Number of BTB updates (Count)
system.cpu.branchPred.btb.updates::Return            0      0.00%      0.00% # Number of BTB updates (Count)
system.cpu.branchPred.btb.updates::CallDirect          286     12.85%     12.85% # Number of BTB updates (Count)
system.cpu.branchPred.btb.updates::CallIndirect            0      0.00%     12.85% # Number of BTB updates (Count)
system.cpu.branchPred.btb.updates::DirectCond         1728     77.63%     90.48% # Number of BTB updates (Count)
system.cpu.branchPred.btb.updates::DirectUncond          212      9.52%    100.00% # Number of BTB updates (Count)
system.cpu.branchPred.btb.updates::IndirectCond            0      0.00%    100.00% # Number of BTB updates (Count)
system.cpu.branchPred.btb.updates::IndirectUncond            0      0.00%    100.00% # Number of BTB updates (Count)
system.cpu.branchPred.btb.updates::total         2226                       # Number of BTB updates (Count)
system.cpu.branchPred.btb.mispredict::NoBranch            0      0.00%      0.00% # Number of BTB mispredictions. No target found or target wrong. (Count)
system.cpu.branchPred.btb.mispredict::Return            0      0.00%      0.00% # Number of BTB mispredictions. No target found or target wrong. (Count)
system.cpu.branchPred.btb.mispredict::CallDirect          286     12.85%     12.85% # Number of BTB mispredictions. No target found or target wrong. (Count)
system.cpu.branchPred.btb.mispredict::CallIndirect            0      0.00%     12.85% # Number of BTB mispredictions. No target found or target wrong. (Count)
system.cpu.branchPred.btb.mispredict::DirectCond         1728     77.63%     90.48% # Number of BTB mispredictions. No target found or target wrong. (Count)
system.cpu.branchPred.btb.mispredict::DirectUncond          212      9.52%    100.00% # Number of BTB mispredictions. No target found or target wrong. (Count)
system.cpu.branchPred.btb.mispredict::IndirectCond            0      0.00%    100.00% # Number of BTB mispredictions. No target found or target wrong. (Count)
system.cpu.branchPred.btb.mispredict::IndirectUncond            0      0.00%    100.00% # Number of BTB mispredictions. No target found or target wrong. (Count)
system.cpu.branchPred.btb.mispredict::total         2226                       # Number of BTB mispredictions. No target found or target wrong. (Count)
system.cpu.branchPred.btb.power_state.pwrStateResidencyTicks::UNDEFINED    470489000                       # Cumulative time (in ticks) in various power states (Tick)
system.cpu.branchPred.indirectBranchPred.lookups          460                       # Number of lookups (Count)
system.cpu.branchPred.indirectBranchPred.hits          151                       # Number of hits of a tag (Count)
system.cpu.branchPred.indirectBranchPred.misses          309                       # Number of misses (Count)
system.cpu.branchPred.indirectBranchPred.targetRecords          275                       # Number of targets that where recorded/installed in the cache (Count)
system.cpu.branchPred.indirectBranchPred.indirectRecords          735                       # Number of indirect branches/calls recorded in the indirect hist (Count)
system.cpu.branchPred.indirectBranchPred.speculativeOverflows            2                       # Number of times more than the allowed capacity for speculative branches/calls where in flight and destroy the path history (Count)
system.cpu.branchPred.ras.pushes                 1285                       # Number of times a PC was pushed onto the RAS (Count)
system.cpu.branchPred.ras.pops                   1282                       # Number of times a PC was poped from the RAS (Count)
system.cpu.branchPred.ras.squashes                208                       # Number of times the stack operation was squashed due to wrong speculation. (Count)
system.cpu.branchPred.ras.used                   1073                       # Number of times the RAS is the provider (Count)
system.cpu.branchPred.ras.correct                1073                       # Number of times the RAS is the provider and the prediction is correct (Count)
system.cpu.branchPred.ras.incorrect                 0                       # Number of times the RAS is the provider and the prediction is wrong (Count)
system.cpu.commit.commitSquashedInsts           16565                       # The number of squashed insts skipped by commit (Count)
system.cpu.commit.commitNonSpecStalls              13                       # The number of times commit has been forced to stall to communicate backwards (Count)
system.cpu.commit.branchMispredicts              2691                       # The number of times a branch was mispredicted (Count)
system.cpu.commit.numCommittedDist::samples       400913                       # Number of insts commited each cycle (Count)
system.cpu.commit.numCommittedDist::mean     0.559111                       # Number of insts commited each cycle (Count)
system.cpu.commit.numCommittedDist::stdev     0.496494                       # Number of insts commited each cycle (Count)
system.cpu.commit.numCommittedDist::underflows            0      0.00%      0.00% # Number of insts commited each cycle (Count)
system.cpu.commit.numCommittedDist::0          176758     44.09%     44.09% # Number of insts commited each cycle (Count)
system.cpu.commit.numCommittedDist::1          224155     55.91%    100.00% # Number of insts commited each cycle (Count)
system.cpu.commit.numCommittedDist::overflows            0      0.00%    100.00% # Number of insts commited each cycle (Count)
system.cpu.commit.numCommittedDist::min_value            0                       # Number of insts commited each cycle (Count)
system.cpu.commit.numCommittedDist::max_value            1                       # Number of insts commited each cycle (Count)
system.cpu.commit.numCommittedDist::total       400913                       # Number of insts commited each cycle (Count)
system.cpu.commit.amos                              0                       # Number of atomic instructions committed (Count)
system.cpu.commit.membars                           8                       # Number of memory barriers committed (Count)
system.cpu.commit.functionCalls                  1077                       # Number of function calls committed. (Count)
system.cpu.commit.committedInstType_0::No_OpClass         1610      0.72%      0.72% # Class of committed instruction (Count)
system.cpu.commit.committedInstType_0::IntAlu       170139     75.90%     76.62% # Class of committed instruction (Count)
system.cpu.commit.committedInstType_0::IntMult          771      0.34%     76.96% # Class of committed instruction (Count)
system.cpu.commit.committedInstType_0::IntDiv         1729      0.77%     77.74% # Class of committed instruction (Count)
system.cpu.commit.committedInstType_0::FloatAdd          442      0.20%     77.93% # Class of committed instruction (Count)
system.cpu.commit.committedInstType_0::FloatCmp            0      0.00%     77.93% # Class of committed instruction (Count)
system.cpu.commit.committedInstType_0::FloatCvt            0      0.00%     77.93% # Class of committed instruction (Count)
system.cpu.commit.committedInstType_0::FloatMult            0      0.00%     77.93% # Class of committed instruction (Count)
system.cpu.commit.committedInstType_0::FloatMultAcc            0      0.00%     77.93% # Class of committed instruction (Count)
system.cpu.commit.committedInstType_0::FloatDiv            0      0.00%     77.93% # Class of committed instruction (Count)
system.cpu.commit.committedInstType_0::FloatMisc            0      0.00%     77.93% # Class of committed instruction (Count)
system.cpu.commit.committedInstType_0::FloatSqrt            0      0.00%     77.93% # Class of committed instruction (Count)
system.cpu.commit.committedInstType_0::SimdAdd          524      0.23%     78.17% # Class of committed instruction (Count)
system.cpu.commit.committedInstType_0::SimdAddAcc            0      0.00%     78.17% # Class of committed instruction (Count)
system.cpu.commit.committedInstType_0::SimdAlu         1108      0.49%     78.66% # Class of committed instruction (Count)
system.cpu.commit.committedInstType_0::SimdCmp            4      0.00%     78.66% # Class of committed instruction (Count)
system.cpu.commit.committedInstType_0::SimdCvt         1176      0.52%     79.19% # Class of committed instruction (Count)
system.cpu.commit.committedInstType_0::SimdMisc         1146      0.51%     79.70% # Class of committed instruction (Count)
system.cpu.commit.committedInstType_0::SimdMult            0      0.00%     79.70% # Class of committed instruction (Count)
system.cpu.commit.committedInstType_0::SimdMultAcc            0      0.00%     79.70% # Class of committed instruction (Count)
system.cpu.commit.committedInstType_0::SimdMatMultAcc            0      0.00%     79.70% # Class of committed instruction (Count)
system.cpu.commit.committedInstType_0::SimdShift          293      0.13%     79.83% # Class of committed instruction (Count)
system.cpu.commit.committedInstType_0::SimdShiftAcc            0      0.00%     79.83% # Class of committed instruction (Count)
system.cpu.commit.committedInstType_0::SimdDiv            0      0.00%     79.83% # Class of committed instruction (Count)
system.cpu.commit.committedInstType_0::SimdSqrt            0      0.00%     79.83% # Class of committed instruction (Count)
system.cpu.commit.committedInstType_0::SimdFloatAdd            0      0.00%     79.83% # Class of committed instruction (Count)
system.cpu.commit.committedInstType_0::SimdFloatAlu            0      0.00%     79.83% # Class of committed instruction (Count)
system.cpu.commit.committedInstType_0::SimdFloatCmp            0      0.00%     79.83% # Class of committed instruction (Count)
system.cpu.commit.committedInstType_0::SimdFloatCvt            0      0.00%     79.83% # Class of committed instruction (Count)
system.cpu.commit.committedInstType_0::SimdFloatDiv            0      0.00%     79.83% # Class of committed instruction (Count)
system.cpu.commit.committedInstType_0::SimdFloatMisc            0      0.00%     79.83% # Class of committed instruction (Count)
system.cpu.commit.committedInstType_0::SimdFloatMult            0      0.00%     79.83% # Class of committed instruction (Count)
system.cpu.commit.committedInstType_0::SimdFloatMultAcc            0      0.00%     79.83% # Class of committed instruction (Count)
system.cpu.commit.committedInstType_0::SimdFloatMatMultAcc            0      0.00%     79.83% # Class of committed instruction (Count)
system.cpu.commit.committedInstType_0::SimdFloatSqrt            0      0.00%     79.83% # Class of committed instruction (Count)
system.cpu.commit.committedInstType_0::SimdReduceAdd            0      0.00%     79.83% # Class of committed instruction (Count)
system.cpu.commit.committedInstType_0::SimdReduceAlu            0      0.00%     79.83% # Class of committed instruction (Count)
system.cpu.commit.committedInstType_0::SimdReduceCmp            0      0.00%     79.83% # Class of committed instruction (Count)
system.cpu.commit.committedInstType_0::SimdFloatReduceAdd            0      0.00%     79.83% # Class of committed instruction (Count)
system.cpu.commit.committedInstType_0::SimdFloatReduceCmp            0      0.00%     79.83% # Class of committed instruction (Count)
system.cpu.commit.committedInstType_0::SimdAes            0      0.00%     79.83% # Class of committed instruction (Count)
system.cpu.commit.committedInstType_0::SimdAesMix            0      0.00%     79.83% # Class of committed instruction (Count)
system.cpu.commit.committedInstType_0::SimdSha1Hash            0      0.00%     79.83% # Class of committed instruction (Count)
system.cpu.commit.committedInstType_0::SimdSha1Hash2            0      0.00%     79.83% # Class of committed instruction (Count)
system.cpu.commit.committedInstType_0::SimdSha256Hash            0      0.00%     79.83% # Class of committed instruction (Count)
system.cpu.commit.committedInstType_0::SimdSha256Hash2            0      0.00%     79.83% # Class of committed instruction (Count)
system.cpu.commit.committedInstType_0::SimdShaSigma2            0      0.00%     79.83% # Class of committed instruction (Count)
system.cpu.commit.committedInstType_0::SimdShaSigma3            0      0.00%     79.83% # Class of committed instruction (Count)
system.cpu.commit.committedInstType_0::SimdPredAlu            0      0.00%     79.83% # Class of committed instruction (Count)
system.cpu.commit.committedInstType_0::Matrix            0      0.00%     79.83% # Class of committed instruction (Count)
system.cpu.commit.committedInstType_0::MatrixMov            0      0.00%     79.83% # Class of committed instruction (Count)
system.cpu.commit.committedInstType_0::MatrixOP            0      0.00%     79.83% # Class of committed instruction (Count)
system.cpu.commit.committedInstType_0::MemRead        28753     12.83%     92.66% # Class of committed instruction (Count)
system.cpu.commit.committedInstType_0::MemWrite        13968      6.23%     98.89% # Class of committed instruction (Count)
system.cpu.commit.committedInstType_0::FloatMemRead         1275      0.57%     99.46% # Class of committed instruction (Count)
system.cpu.commit.committedInstType_0::FloatMemWrite         1217      0.54%    100.00% # Class of committed instruction (Count)
system.cpu.commit.committedInstType_0::IprAccess            0      0.00%    100.00% # Class of committed instruction (Count)
system.cpu.commit.committedInstType_0::InstPrefetch            0      0.00%    100.00% # Class of committed instruction (Count)
system.cpu.commit.committedInstType_0::SimdUnitStrideLoad            0      0.00%    100.00% # Class of committed instruction (Count)
system.cpu.commit.committedInstType_0::SimdUnitStrideStore            0      0.00%    100.00% # Class of committed instruction (Count)
system.cpu.commit.committedInstType_0::SimdUnitStrideMaskLoad            0      0.00%    100.00% # Class of committed instruction (Count)
system.cpu.commit.committedInstType_0::SimdUnitStrideMaskStore            0      0.00%    100.00% # Class of committed instruction (Count)
system.cpu.commit.committedInstType_0::SimdStridedLoad            0      0.00%    100.00% # Class of committed instruction (Count)
system.cpu.commit.committedInstType_0::SimdStridedStore            0      0.00%    100.00% # Class of committed instruction (Count)
system.cpu.commit.committedInstType_0::SimdIndexedLoad            0      0.00%    100.00% # Class of committed instruction (Count)
system.cpu.commit.committedInstType_0::SimdIndexedStore            0      0.00%    100.00% # Class of committed instruction (Count)
system.cpu.commit.committedInstType_0::SimdWholeRegisterLoad            0      0.00%    100.00% # Class of committed instruction (Count)
system.cpu.commit.committedInstType_0::SimdWholeRegisterStore            0      0.00%    100.00% # Class of committed instruction (Count)
system.cpu.commit.committedInstType_0::SimdUnitStrideFaultOnlyFirstLoad            0      0.00%    100.00% # Class of committed instruction (Count)
system.cpu.commit.committedInstType_0::SimdUnitStrideSegmentedLoad            0      0.00%    100.00% # Class of committed instruction (Count)
system.cpu.commit.committedInstType_0::SimdUnitStrideSegmentedStore            0      0.00%    100.00% # Class of committed instruction (Count)
system.cpu.commit.committedInstType_0::SimdUnitStrideSegmentedFaultOnlyFirstLoad            0      0.00%    100.00% # Class of committed instruction (Count)
system.cpu.commit.committedInstType_0::SimdStrideSegmentedLoad            0      0.00%    100.00% # Class of committed instruction (Count)
system.cpu.commit.committedInstType_0::SimdStrideSegmentedStore            0      0.00%    100.00% # Class of committed instruction (Count)
system.cpu.commit.committedInstType_0::SimdExt            0      0.00%    100.00% # Class of committed instruction (Count)
system.cpu.commit.committedInstType_0::SimdFloatExt            0      0.00%    100.00% # Class of committed instruction (Count)
system.cpu.commit.committedInstType_0::SimdConfig            0      0.00%    100.00% # Class of committed instruction (Count)
system.cpu.commit.committedInstType_0::total       224155                       # Class of committed instruction (Count)
system.cpu.commit.commitEligibleSamples        224155                       # number cycles where commit BW limit reached (Cycle)
system.cpu.commitStats0.numInsts               116355                       # Number of instructions committed (thread level) (Count)
system.cpu.commitStats0.numOps                 224155                       # Number of ops (including micro ops) committed (thread level) (Count)
system.cpu.commitStats0.numInstsNotNOP         116355                       # Number of instructions committed excluding NOPs or prefetches (Count)
system.cpu.commitStats0.numOpsNotNOP           224155                       # Number of Ops (including micro ops) Simulated (Count)
system.cpu.commitStats0.cpi                  4.043574                       # CPI: cycles per instruction (thread level) ((Cycle/Count))
system.cpu.commitStats0.ipc                  0.247306                       # IPC: instructions per cycle (thread level) ((Count/Cycle))
system.cpu.commitStats0.numMemRefs              45213                       # Number of memory references committed (Count)
system.cpu.commitStats0.numFpInsts               7581                       # Number of float instructions (Count)
system.cpu.commitStats0.numIntInsts            217133                       # Number of integer instructions (Count)
system.cpu.commitStats0.numLoadInsts            30028                       # Number of load instructions (Count)
system.cpu.commitStats0.numStoreInsts           15185                       # Number of store instructions (Count)
system.cpu.commitStats0.numVecInsts                 0                       # Number of vector instructions (Count)
system.cpu.commitStats0.committedInstType::No_OpClass         1610      0.72%      0.72% # Class of committed instruction. (Count)
system.cpu.commitStats0.committedInstType::IntAlu       170139     75.90%     76.62% # Class of committed instruction. (Count)
system.cpu.commitStats0.committedInstType::IntMult          771      0.34%     76.96% # Class of committed instruction. (Count)
system.cpu.commitStats0.committedInstType::IntDiv         1729      0.77%     77.74% # Class of committed instruction. (Count)
system.cpu.commitStats0.committedInstType::FloatAdd          442      0.20%     77.93% # Class of committed instruction. (Count)
system.cpu.commitStats0.committedInstType::FloatCmp            0      0.00%     77.93% # Class of committed instruction. (Count)
system.cpu.commitStats0.committedInstType::FloatCvt            0      0.00%     77.93% # Class of committed instruction. (Count)
system.cpu.commitStats0.committedInstType::FloatMult            0      0.00%     77.93% # Class of committed instruction. (Count)
system.cpu.commitStats0.committedInstType::FloatMultAcc            0      0.00%     77.93% # Class of committed instruction. (Count)
system.cpu.commitStats0.committedInstType::FloatDiv            0      0.00%     77.93% # Class of committed instruction. (Count)
system.cpu.commitStats0.committedInstType::FloatMisc            0      0.00%     77.93% # Class of committed instruction. (Count)
system.cpu.commitStats0.committedInstType::FloatSqrt            0      0.00%     77.93% # Class of committed instruction. (Count)
system.cpu.commitStats0.committedInstType::SimdAdd          524      0.23%     78.17% # Class of committed instruction. (Count)
system.cpu.commitStats0.committedInstType::SimdAddAcc            0      0.00%     78.17% # Class of committed instruction. (Count)
system.cpu.commitStats0.committedInstType::SimdAlu         1108      0.49%     78.66% # Class of committed instruction. (Count)
system.cpu.commitStats0.committedInstType::SimdCmp            4      0.00%     78.66% # Class of committed instruction. (Count)
system.cpu.commitStats0.committedInstType::SimdCvt         1176      0.52%     79.19% # Class of committed instruction. (Count)
system.cpu.commitStats0.committedInstType::SimdMisc         1146      0.51%     79.70% # Class of committed instruction. (Count)
system.cpu.commitStats0.committedInstType::SimdMult            0      0.00%     79.70% # Class of committed instruction. (Count)
system.cpu.commitStats0.committedInstType::SimdMultAcc            0      0.00%     79.70% # Class of committed instruction. (Count)
system.cpu.commitStats0.committedInstType::SimdMatMultAcc            0      0.00%     79.70% # Class of committed instruction. (Count)
system.cpu.commitStats0.committedInstType::SimdShift          293      0.13%     79.83% # Class of committed instruction. (Count)
system.cpu.commitStats0.committedInstType::SimdShiftAcc            0      0.00%     79.83% # Class of committed instruction. (Count)
system.cpu.commitStats0.committedInstType::SimdDiv            0      0.00%     79.83% # Class of committed instruction. (Count)
system.cpu.commitStats0.committedInstType::SimdSqrt            0      0.00%     79.83% # Class of committed instruction. (Count)
system.cpu.commitStats0.committedInstType::SimdFloatAdd            0      0.00%     79.83% # Class of committed instruction. (Count)
system.cpu.commitStats0.committedInstType::SimdFloatAlu            0      0.00%     79.83% # Class of committed instruction. (Count)
system.cpu.commitStats0.committedInstType::SimdFloatCmp            0      0.00%     79.83% # Class of committed instruction. (Count)
system.cpu.commitStats0.committedInstType::SimdFloatCvt            0      0.00%     79.83% # Class of committed instruction. (Count)
system.cpu.commitStats0.committedInstType::SimdFloatDiv            0      0.00%     79.83% # Class of committed instruction. (Count)
system.cpu.commitStats0.committedInstType::SimdFloatMisc            0      0.00%     79.83% # Class of committed instruction. (Count)
system.cpu.commitStats0.committedInstType::SimdFloatMult            0      0.00%     79.83% # Class of committed instruction. (Count)
system.cpu.commitStats0.committedInstType::SimdFloatMultAcc            0      0.00%     79.83% # Class of committed instruction. (Count)
system.cpu.commitStats0.committedInstType::SimdFloatMatMultAcc            0      0.00%     79.83% # Class of committed instruction. (Count)
system.cpu.commitStats0.committedInstType::SimdFloatSqrt            0      0.00%     79.83% # Class of committed instruction. (Count)
system.cpu.commitStats0.committedInstType::SimdReduceAdd            0      0.00%     79.83% # Class of committed instruction. (Count)
system.cpu.commitStats0.committedInstType::SimdReduceAlu            0      0.00%     79.83% # Class of committed instruction. (Count)
system.cpu.commitStats0.committedInstType::SimdReduceCmp            0      0.00%     79.83% # Class of committed instruction. (Count)
system.cpu.commitStats0.committedInstType::SimdFloatReduceAdd            0      0.00%     79.83% # Class of committed instruction. (Count)
system.cpu.commitStats0.committedInstType::SimdFloatReduceCmp            0      0.00%     79.83% # Class of committed instruction. (Count)
system.cpu.commitStats0.committedInstType::SimdAes            0      0.00%     79.83% # Class of committed instruction. (Count)
system.cpu.commitStats0.committedInstType::SimdAesMix            0      0.00%     79.83% # Class of committed instruction. (Count)
system.cpu.commitStats0.committedInstType::SimdSha1Hash            0      0.00%     79.83% # Class of committed instruction. (Count)
system.cpu.commitStats0.committedInstType::SimdSha1Hash2            0      0.00%     79.83% # Class of committed instruction. (Count)
system.cpu.commitStats0.committedInstType::SimdSha256Hash            0      0.00%     79.83% # Class of committed instruction. (Count)
system.cpu.commitStats0.committedInstType::SimdSha256Hash2            0      0.00%     79.83% # Class of committed instruction. (Count)
system.cpu.commitStats0.committedInstType::SimdShaSigma2            0      0.00%     79.83% # Class of committed instruction. (Count)
system.cpu.commitStats0.committedInstType::SimdShaSigma3            0      0.00%     79.83% # Class of committed instruction. (Count)
system.cpu.commitStats0.committedInstType::SimdPredAlu            0      0.00%     79.83% # Class of committed instruction. (Count)
system.cpu.commitStats0.committedInstType::Matrix            0      0.00%     79.83% # Class of committed instruction. (Count)
system.cpu.commitStats0.committedInstType::MatrixMov            0      0.00%     79.83% # Class of committed instruction. (Count)
system.cpu.commitStats0.committedInstType::MatrixOP            0      0.00%     79.83% # Class of committed instruction. (Count)
system.cpu.commitStats0.committedInstType::MemRead        28753     12.83%     92.66% # Class of committed instruction. (Count)
system.cpu.commitStats0.committedInstType::MemWrite        13968      6.23%     98.89% # Class of committed instruction. (Count)
system.cpu.commitStats0.committedInstType::FloatMemRead         1275      0.57%     99.46% # Class of committed instruction. (Count)
system.cpu.commitStats0.committedInstType::FloatMemWrite         1217      0.54%    100.00% # Class of committed instruction. (Count)
system.cpu.commitStats0.committedInstType::IprAccess            0      0.00%    100.00% # Class of committed instruction. (Count)
system.cpu.commitStats0.committedInstType::InstPrefetch            0      0.00%    100.00% # Class of committed instruction. (Count)
system.cpu.commitStats0.committedInstType::SimdUnitStrideLoad            0      0.00%    100.00% # Class of committed instruction. (Count)
system.cpu.commitStats0.committedInstType::SimdUnitStrideStore            0      0.00%    100.00% # Class of committed instruction. (Count)
system.cpu.commitStats0.committedInstType::SimdUnitStrideMaskLoad            0      0.00%    100.00% # Class of committed instruction. (Count)
system.cpu.commitStats0.committedInstType::SimdUnitStrideMaskStore            0      0.00%    100.00% # Class of committed instruction. (Count)
system.cpu.commitStats0.committedInstType::SimdStridedLoad            0      0.00%    100.00% # Class of committed instruction. (Count)
system.cpu.commitStats0.committedInstType::SimdStridedStore            0      0.00%    100.00% # Class of committed instruction. (Count)
system.cpu.commitStats0.committedInstType::SimdIndexedLoad            0      0.00%    100.00% # Class of committed instruction. (Count)
system.cpu.commitStats0.committedInstType::SimdIndexedStore            0      0.00%    100.00% # Class of committed instruction. (Count)
system.cpu.commitStats0.committedInstType::SimdWholeRegisterLoad            0      0.00%    100.00% # Class of committed instruction. (Count)
system.cpu.commitStats0.committedInstType::SimdWholeRegisterStore            0      0.00%    100.00% # Class of committed instruction. (Count)
system.cpu.commitStats0.committedInstType::SimdUnitStrideFaultOnlyFirstLoad            0      0.00%    100.00% # Class of committed instruction. (Count)
system.cpu.commitStats0.committedInstType::SimdUnitStrideSegmentedLoad            0      0.00%    100.00% # Class of committed instruction. (Count)
system.cpu.commitStats0.committedInstType::SimdUnitStrideSegmentedStore            0      0.00%    100.00% # Class of committed instruction. (Count)
system.cpu.commitStats0.committedInstType::SimdUnitStrideSegmentedFaultOnlyFirstLoad            0      0.00%    100.00% # Class of committed instruction. (Count)
system.cpu.commitStats0.committedInstType::SimdStrideSegmentedLoad            0      0.00%    100.00% # Class of committed instruction. (Count)
system.cpu.commitStats0.committedInstType::SimdStrideSegmentedStore            0      0.00%    100.00% # Class of committed instruction. (Count)
system.cpu.commitStats0.committedInstType::SimdExt            0      0.00%    100.00% # Class of committed instruction. (Count)
system.cpu.commitStats0.committedInstType::SimdFloatExt            0      0.00%    100.00% # Class of committed instruction. (Count)
system.cpu.commitStats0.committedInstType::SimdConfig            0      0.00%    100.00% # Class of committed instruction. (Count)
system.cpu.commitStats0.committedInstType::total       224155                       # Class of committed instruction. (Count)
system.cpu.commitStats0.committedControl::IsControl        23667                       # Class of control type instructions committed (Count)
system.cpu.commitStats0.committedControl::IsDirectControl        22138                       # Class of control type instructions committed (Count)
system.cpu.commitStats0.committedControl::IsIndirectControl         1482                       # Class of control type instructions committed (Count)
system.cpu.commitStats0.committedControl::IsCondControl        20273                       # Class of control type instructions committed (Count)
system.cpu.commitStats0.committedControl::IsUncondControl         3347                       # Class of control type instructions committed (Count)
system.cpu.commitStats0.committedControl::IsCall         1077                       # Class of control type instructions committed (Count)
system.cpu.commitStats0.committedControl::IsReturn         1073                       # Class of control type instructions committed (Count)
system.cpu.decode.idleCycles                    58125                       # Number of cycles decode is idle (Cycle)
system.cpu.decode.blockedCycles                 95321                       # Number of cycles decode is blocked (Cycle)
system.cpu.decode.runCycles                    241696                       # Number of cycles decode is running (Cycle)
system.cpu.decode.unblockCycles                  6850                       # Number of cycles decode is unblocking (Cycle)
[...]
system.mem_ctrl.dram.bwRead::total          950245440                       # Total read bandwidth from this memory ((Byte/Second))
system.mem_ctrl.dram.bwInstRead::cpu.inst    667111084                       # Instruction read bandwidth from this memory ((Byte/Second))
system.mem_ctrl.dram.bwInstRead::total      667111084                       # Instruction read bandwidth from this memory ((Byte/Second))
system.mem_ctrl.dram.bwWrite::writebacks    164838495                       # Write bandwidth from this memory ((Byte/Second))
system.mem_ctrl.dram.bwWrite::total         164838495                       # Write bandwidth from this memory ((Byte/Second))
system.mem_ctrl.dram.bwTotal::writebacks    164838495                       # Total bandwidth to/from this memory ((Byte/Second))
system.mem_ctrl.dram.bwTotal::cpu.inst      667111084                       # Total bandwidth to/from this memory ((Byte/Second))
system.mem_ctrl.dram.bwTotal::cpu.data      283134355                       # Total bandwidth to/from this memory ((Byte/Second))
system.mem_ctrl.dram.bwTotal::total        1115083934                       # Total bandwidth to/from this memory ((Byte/Second))
system.mem_ctrl.dram.readBursts                   484                       # Number of DRAM read bursts (Count)
system.mem_ctrl.dram.writeBursts                   81                       # Number of DRAM write bursts (Count)
system.mem_ctrl.dram.perBankRdBursts::0            66                       # Per bank write bursts (Count)
system.mem_ctrl.dram.perBankRdBursts::1            49                       # Per bank write bursts (Count)
system.mem_ctrl.dram.perBankRdBursts::2            30                       # Per bank write bursts (Count)
system.mem_ctrl.dram.perBankRdBursts::3            44                       # Per bank write bursts (Count)
system.mem_ctrl.dram.perBankRdBursts::4             6                       # Per bank write bursts (Count)
system.mem_ctrl.dram.perBankRdBursts::5            16                       # Per bank write bursts (Count)
system.mem_ctrl.dram.perBankRdBursts::6            23                       # Per bank write bursts (Count)
system.mem_ctrl.dram.perBankRdBursts::7            38                       # Per bank write bursts (Count)
system.mem_ctrl.dram.perBankRdBursts::8            28                       # Per bank write bursts (Count)
system.mem_ctrl.dram.perBankRdBursts::9            40                       # Per bank write bursts (Count)
system.mem_ctrl.dram.perBankRdBursts::10           62                       # Per bank write bursts (Count)
system.mem_ctrl.dram.perBankRdBursts::11           25                       # Per bank write bursts (Count)
system.mem_ctrl.dram.perBankRdBursts::12           10                       # Per bank write bursts (Count)
system.mem_ctrl.dram.perBankRdBursts::13            4                       # Per bank write bursts (Count)
system.mem_ctrl.dram.perBankRdBursts::14           28                       # Per bank write bursts (Count)
system.mem_ctrl.dram.perBankRdBursts::15           15                       # Per bank write bursts (Count)
system.mem_ctrl.dram.perBankWrBursts::0             2                       # Per bank write bursts (Count)
system.mem_ctrl.dram.perBankWrBursts::1             1                       # Per bank write bursts (Count)
system.mem_ctrl.dram.perBankWrBursts::2             5                       # Per bank write bursts (Count)
system.mem_ctrl.dram.perBankWrBursts::3             1                       # Per bank write bursts (Count)
system.mem_ctrl.dram.perBankWrBursts::4             1                       # Per bank write bursts (Count)
system.mem_ctrl.dram.perBankWrBursts::5             0                       # Per bank write bursts (Count)
system.mem_ctrl.dram.perBankWrBursts::6             8                       # Per bank write bursts (Count)
system.mem_ctrl.dram.perBankWrBursts::7             0                       # Per bank write bursts (Count)
system.mem_ctrl.dram.perBankWrBursts::8            21                       # Per bank write bursts (Count)
system.mem_ctrl.dram.perBankWrBursts::9             0                       # Per bank write bursts (Count)
system.mem_ctrl.dram.perBankWrBursts::10           10                       # Per bank write bursts (Count)
system.mem_ctrl.dram.perBankWrBursts::11            0                       # Per bank write bursts (Count)
system.mem_ctrl.dram.perBankWrBursts::12            1                       # Per bank write bursts (Count)
system.mem_ctrl.dram.perBankWrBursts::13            1                       # Per bank write bursts (Count)
system.mem_ctrl.dram.perBankWrBursts::14           23                       # Per bank write bursts (Count)
system.mem_ctrl.dram.perBankWrBursts::15            7                       # Per bank write bursts (Count)
system.mem_ctrl.dram.totQLat                  5185750                       # Total ticks spent queuing (Tick)
system.mem_ctrl.dram.totBusLat                2420000                       # Total ticks spent in databus transfers (Tick)
system.mem_ctrl.dram.totMemAccLat            14260750                       # Total ticks spent from burst creation until serviced by the DRAM (Tick)
system.mem_ctrl.dram.avgQLat                 10714.36                       # Average queueing delay per DRAM burst ((Tick/Count))
system.mem_ctrl.dram.avgBusLat                5000.00                       # Average bus latency per DRAM burst ((Tick/Count))
system.mem_ctrl.dram.avgMemAccLat            29464.36                       # Average memory access latency per DRAM burst ((Tick/Count))
system.mem_ctrl.dram.readRowHits                  362                       # Number of row buffer hits during reads (Count)
system.mem_ctrl.dram.writeRowHits                  68                       # Number of row buffer hits during writes (Count)
system.mem_ctrl.dram.readRowHitRate             74.79                       # Row buffer hit rate for reads (Ratio)
system.mem_ctrl.dram.writeRowHitRate            83.95                       # Row buffer hit rate for writes (Ratio)
system.mem_ctrl.dram.bytesPerActivate::samples          136                       # Bytes accessed per row activation (Byte)
system.mem_ctrl.dram.bytesPerActivate::mean   262.588235                       # Bytes accessed per row activation (Byte)
system.mem_ctrl.dram.bytesPerActivate::gmean   170.200436                       # Bytes accessed per row activation (Byte)
system.mem_ctrl.dram.bytesPerActivate::stdev   269.203722                       # Bytes accessed per row activation (Byte)
system.mem_ctrl.dram.bytesPerActivate::0-127           48     35.29%     35.29% # Bytes accessed per row activation (Byte)
system.mem_ctrl.dram.bytesPerActivate::128-255           38     27.94%     63.24% # Bytes accessed per row activation (Byte)
system.mem_ctrl.dram.bytesPerActivate::256-383           19     13.97%     77.21% # Bytes accessed per row activation (Byte)
system.mem_ctrl.dram.bytesPerActivate::384-511            9      6.62%     83.82% # Bytes accessed per row activation (Byte)
system.mem_ctrl.dram.bytesPerActivate::512-639            4      2.94%     86.76% # Bytes accessed per row activation (Byte)
system.mem_ctrl.dram.bytesPerActivate::640-767            4      2.94%     89.71% # Bytes accessed per row activation (Byte)
system.mem_ctrl.dram.bytesPerActivate::768-895            5      3.68%     93.38% # Bytes accessed per row activation (Byte)
system.mem_ctrl.dram.bytesPerActivate::896-1023            3      2.21%     95.59% # Bytes accessed per row activation (Byte)
system.mem_ctrl.dram.bytesPerActivate::1024-1151            6      4.41%    100.00% # Bytes accessed per row activation (Byte)
system.mem_ctrl.dram.bytesPerActivate::total          136                       # Bytes accessed per row activation (Byte)
system.mem_ctrl.dram.dramBytesRead              30976                       # Total bytes read (Byte)
system.mem_ctrl.dram.dramBytesWritten            5184                       # Total bytes written (Byte)
system.mem_ctrl.dram.avgRdBW               938.609781                       # Average DRAM read bandwidth in MiBytes/s ((Byte/Second))
system.mem_ctrl.dram.avgWrBW               157.081389                       # Average DRAM write bandwidth in MiBytes/s ((Byte/Second))
system.mem_ctrl.dram.peakBW                  12800.00                       # Theoretical peak bandwidth in MiByte/s ((Byte/Second))
system.mem_ctrl.dram.busUtil                     8.56                       # Data bus utilization in percentage (Ratio)
system.mem_ctrl.dram.busUtilRead                 7.33                       # Data bus utilization in percentage for reads (Ratio)
system.mem_ctrl.dram.busUtilWrite                1.23                       # Data bus utilization in percentage for writes (Ratio)
system.mem_ctrl.dram.pageHitRate                76.11                       # Row buffer hit rate, read and write combined (Ratio)
system.mem_ctrl.dram.power_state.pwrStateResidencyTicks::UNDEFINED     33002000                       # Cumulative time (in ticks) in various power states (Tick)
system.mem_ctrl.dram.rank0.actEnergy           506940                       # Energy for activate commands per rank (pJ) (Joule)
system.mem_ctrl.dram.rank0.preEnergy           269445                       # Energy for precharge commands per rank (pJ) (Joule)
system.mem_ctrl.dram.rank0.readEnergy         1942080                       # Energy for read commands per rank (pJ) (Joule)
system.mem_ctrl.dram.rank0.writeEnergy          93960                       # Energy for write commands per rank (pJ) (Joule)
system.mem_ctrl.dram.rank0.refreshEnergy 2458560.000000                       # Energy for refresh commands per rank (pJ) (Joule)
system.mem_ctrl.dram.rank0.actBackEnergy     14703720                       # Energy for active background per rank (pJ) (Joule)
system.mem_ctrl.dram.rank0.preBackEnergy       290400                       # Energy for precharge background per rank (pJ) (Joule)
system.mem_ctrl.dram.rank0.actPowerDownEnergy            0                       # Energy for active power-down per rank (pJ) (Joule)
system.mem_ctrl.dram.rank0.prePowerDownEnergy            0                       # Energy for precharge power-down per rank (pJ) (Joule)
system.mem_ctrl.dram.rank0.selfRefreshEnergy            0                       # Energy for self refresh per rank (pJ) (Joule)
system.mem_ctrl.dram.rank0.totalEnergy       20265105                       # Total energy per rank (pJ) (Joule)
system.mem_ctrl.dram.rank0.averagePower    614.056875                       # Core power per rank (mW) (Watt)
system.mem_ctrl.dram.rank0.totalIdleTime            0                       # Total Idle time Per DRAM Rank (Tick)
system.mem_ctrl.dram.rank0.pwrStateTime::IDLE       645500                       # Time in different power states (Tick)
system.mem_ctrl.dram.rank0.pwrStateTime::REF      1040000                       # Time in different power states (Tick)
system.mem_ctrl.dram.rank0.pwrStateTime::SREF            0                       # Time in different power states (Tick)
system.mem_ctrl.dram.rank0.pwrStateTime::PRE_PDN            0                       # Time in different power states (Tick)
system.mem_ctrl.dram.rank0.pwrStateTime::ACT     31316500                       # Time in different power states (Tick)
system.mem_ctrl.dram.rank0.pwrStateTime::ACT_PDN            0                       # Time in different power states (Tick)
system.mem_ctrl.dram.rank1.actEnergy           456960                       # Energy for activate commands per rank (pJ) (Joule)
system.mem_ctrl.dram.rank1.preEnergy           246675                       # Energy for precharge commands per rank (pJ) (Joule)
system.mem_ctrl.dram.rank1.readEnergy         1513680                       # Energy for read commands per rank (pJ) (Joule)
system.mem_ctrl.dram.rank1.writeEnergy         328860                       # Energy for write commands per rank (pJ) (Joule)
system.mem_ctrl.dram.rank1.refreshEnergy 2458560.000000                       # Energy for refresh commands per rank (pJ) (Joule)
system.mem_ctrl.dram.rank1.actBackEnergy     14857050                       # Energy for active background per rank (pJ) (Joule)
system.mem_ctrl.dram.rank1.preBackEnergy       161280                       # Energy for precharge background per rank (pJ) (Joule)
system.mem_ctrl.dram.rank1.actPowerDownEnergy            0                       # Energy for active power-down per rank (pJ) (Joule)
system.mem_ctrl.dram.rank1.prePowerDownEnergy            0                       # Energy for precharge power-down per rank (pJ) (Joule)
system.mem_ctrl.dram.rank1.selfRefreshEnergy            0                       # Energy for self refresh per rank (pJ) (Joule)
system.mem_ctrl.dram.rank1.totalEnergy       20023065                       # Total energy per rank (pJ) (Joule)
system.mem_ctrl.dram.rank1.averagePower    606.722774                       # Core power per rank (mW) (Watt)
system.mem_ctrl.dram.rank1.totalIdleTime            0                       # Total Idle time Per DRAM Rank (Tick)
system.mem_ctrl.dram.rank1.pwrStateTime::IDLE       309000                       # Time in different power states (Tick)
system.mem_ctrl.dram.rank1.pwrStateTime::REF      1040000                       # Time in different power states (Tick)
system.mem_ctrl.dram.rank1.pwrStateTime::SREF            0                       # Time in different power states (Tick)
system.mem_ctrl.dram.rank1.pwrStateTime::PRE_PDN            0                       # Time in different power states (Tick)
system.mem_ctrl.dram.rank1.pwrStateTime::ACT     31653000                       # Time in different power states (Tick)
system.mem_ctrl.dram.rank1.pwrStateTime::ACT_PDN            0                       # Time in different power states (Tick)
system.mem_ctrl.power_state.pwrStateResidencyTicks::UNDEFINED     33002000                       # Cumulative time (in ticks) in various power states (Tick)
system.membus.transDist::ReadResp                 480                       # Transaction distribution (Count)
system.membus.transDist::WritebackDirty            85                       # Transaction distribution (Count)
system.membus.transDist::CleanEvict               404                       # Transaction distribution (Count)
system.membus.transDist::UpgradeReq                 1                       # Transaction distribution (Count)
system.membus.transDist::ReadExReq                 10                       # Transaction distribution (Count)
system.membus.transDist::ReadExResp                10                       # Transaction distribution (Count)
system.membus.transDist::ReadSharedReq            480                       # Transaction distribution (Count)
system.membus.pktCount_system.cpu.l1i.mem_side_port::system.mem_ctrl.port         1031                       # Packet count per connected requestor and responder (Count)
system.membus.pktCount_system.cpu.l1i.mem_side_port::total         1031                       # Packet count per connected requestor and responder (Count)
system.membus.pktCount_system.cpu.l1d.mem_side_port::system.mem_ctrl.port          439                       # Packet count per connected requestor and responder (Count)
system.membus.pktCount_system.cpu.l1d.mem_side_port::total          439                       # Packet count per connected requestor and responder (Count)
system.membus.pktCount::total                    1470                       # Packet count per connected requestor and responder (Count)
system.membus.pktSize_system.cpu.l1i.mem_side_port::system.mem_ctrl.port        22016                       # Cumulative packet size per connected requestor and responder (Byte)
system.membus.pktSize_system.cpu.l1i.mem_side_port::total        22016                       # Cumulative packet size per connected requestor and responder (Byte)
system.membus.pktSize_system.cpu.l1d.mem_side_port::system.mem_ctrl.port        14784                       # Cumulative packet size per connected requestor and responder (Byte)
system.membus.pktSize_system.cpu.l1d.mem_side_port::total        14784                       # Cumulative packet size per connected requestor and responder (Byte)
system.membus.pktSize::total                    36800                       # Cumulative packet size per connected requestor and responder (Byte)
system.membus.snoops                                0                       # Total snoops (Count)
system.membus.snoopTraffic                          0                       # Total snoop traffic (Byte)
system.membus.snoopFanout::samples                491                       # Request fanout histogram (Count)
system.membus.snoopFanout::mean              0.004073                       # Request fanout histogram (Count)
system.membus.snoopFanout::stdev             0.063757                       # Request fanout histogram (Count)
system.membus.snoopFanout::underflows               0      0.00%      0.00% # Request fanout histogram (Count)
system.membus.snoopFanout::0                      489     99.59%     99.59% # Request fanout histogram (Count)
system.membus.snoopFanout::1                        2      0.41%    100.00% # Request fanout histogram (Count)
system.membus.snoopFanout::2                        0      0.00%    100.00% # Request fanout histogram (Count)
system.membus.snoopFanout::overflows                0      0.00%    100.00% # Request fanout histogram (Count)
system.membus.snoopFanout::min_value                0                       # Request fanout histogram (Count)
system.membus.snoopFanout::max_value                1                       # Request fanout histogram (Count)
system.membus.snoopFanout::total                  491                       # Request fanout histogram (Count)
system.membus.power_state.pwrStateResidencyTicks::UNDEFINED     33002000                       # Cumulative time (in ticks) in various power states (Tick)
system.membus.reqLayer2.occupancy             1320000                       # Layer occupancy (ticks) (Tick)
system.membus.reqLayer2.utilization               0.0                       # Layer utilization (Ratio)
system.membus.respLayer2.occupancy            1832000                       # Layer occupancy (ticks) (Tick)
system.membus.respLayer2.utilization              0.1                       # Layer utilization (Ratio)
system.membus.respLayer3.occupancy             780000                       # Layer occupancy (ticks) (Tick)
system.membus.respLayer3.utilization              0.0                       # Layer utilization (Ratio)
system.membus.snoop_filter.totRequests            980                       # Total number of requests made to the snoop filter. (Count)
system.membus.snoop_filter.hitSingleRequests          489                       # Number of requests hitting in the snoop filter with a single holder of the requested data. (Count)
system.membus.snoop_filter.hitMultiRequests            2                       # Number of requests hitting in the snoop filter with multiple (>1) holders of the requested data. (Count)
system.membus.snoop_filter.totSnoops                0                       # Total number of snoops made to the snoop filter. (Count)
system.membus.snoop_filter.hitSingleSnoops            0                       # Number of snoops hitting in the snoop filter with a single holder of the requested data. (Count)
system.membus.snoop_filter.hitMultiSnoops            0                       # Number of snoops hitting in the snoop filter with multiple (>1) holders of the requested data. (Count)
system.workload.inst.arm                            0                       # number of arm instructions executed (Count)
system.workload.inst.quiesce                        0                       # number of quiesce instructions executed (Count)

---------- End Simulation Statistics   ----------
